/*--------------------------------*- C++ -*----------------------------------*\
| =========                 |                                                 |
| \\      /  F ield         | OpenFOAM: The Open Source CFD Toolbox           |
|  \\    /   O peration     | Version:  2.3.x                                 |
|   \\  /    A nd           | Web:      www.OpenFOAM.org                      |
|    \\/     M anipulation  |                                                 |
\*---------------------------------------------------------------------------*/
FoamFile
{
    version     2.0;
    format      ascii;
    class       polyBoundaryMesh;
    location    "constant/polyMesh";
    object      boundary;
}
// * * * * * * * * * * * * * * * * * * * * * * * * * * * * * * * * * * * * * //

5
(
    top
    {
        type            wall;
        inGroups        1(wall);
        nFaces          100;
        startFace       99400;
    }
    bottom
    {
        type            wall;
        inGroups        1(wall);
        nFaces          100;
        startFace       99500;
    }
    left
    {
        type            symmetryPlane;
        inGroups        1(symmetryPlane);
        nFaces          500;
        startFace       99600;
    }
    right
    {
        type            symmetryPlane;
        inGroups        1(symmetryPlane);
        nFaces          500;
        startFace       100100;
    }
    frontAndBack
    {
        type            empty;
        inGroups        1(empty);
        nFaces          100000;
        startFace       100600;
    }
)

// ************************************************************************* //
