/*--------------------------------*- C++ -*----------------------------------*\
| =========                 |                                                 |
| \\      /  F ield         | OpenFOAM: The Open Source CFD Toolbox           |
|  \\    /   O peration     | Version:  2.3.x                                 |
|   \\  /    A nd           | Web:      www.OpenFOAM.org                      |
|    \\/     M anipulation  |                                                 |
\*---------------------------------------------------------------------------*/
FoamFile
{
    version     2.0;
    format      ascii;
    class       polyBoundaryMesh;
    location    "constant/polyMesh";
    object      boundary;
}
// * * * * * * * * * * * * * * * * * * * * * * * * * * * * * * * * * * * * * //

2
(
    outflowBoundaries
    {
        type            wall;
        inGroups        1(wall);
        nFaces          1200;
        startFace       99400;
    }
    frontAndBack
    {
        type            empty;
        inGroups        1(empty);
        nFaces          100000;
        startFace       100600;
    }
)

// ************************************************************************* //
